/*--------------------------------*- C++ -*----------------------------------*\
| =========                 |                                                 |
| \\      /  F ield         | OpenFOAM: The Open Source CFD Toolbox           |
|  \\    /   O peration     | Version:  v1906                                 |
|   \\  /    A nd           | Web:      www.OpenFOAM.com                      |
|    \\/     M anipulation  |                                                 |
\*---------------------------------------------------------------------------*/
FoamFile
{
    version     2.0;
    format      ascii;
    class       dictionary;
    object      thermophysicalProperties;
}
// * * * * * * * * * * * * * * * * * * * * * * * * * * * * * * * * * * * * * //

thermoType
{
    type            heSolidThermo;
    mixture         pureMixture;
    transport       constIsoSolid;
    thermo          eConst;
    equationOfState rhoConst;
    specie          specie;
    energy          sensibleInternalEnergy;
}

mixture
{
    specie
    {
        nMoles      1;
        molWeight   63.5;   // [g/mol]
    }

    transport
    {
        kappa   380;        // [W/m/K]
    }

    thermodynamics
    {
        Hf      0;
        Cv      385;        // [J/kg/K]
    }

    equationOfState
    {
        rho     8940;       // [kg/m^3]
    }
}


// Aluminum
/*
mixture
{
    specie
    {
        nMoles      1;
        molWeight   27; // [g/mol]
    }

    transport
    {
        kappa   240;    // [W/m/K]
    }

    thermodynamics
    {
        Hf      0;
        Cv      896;    // [J/kg/K]
    }

    equationOfState
    {
        rho     2712;   // [kg/m^3]
    }
}
*/

// ************************************************************************* //
